Circuit: *** SPICE deck for cell mux{sch} from library xyz

Ignoring BSIM parameter HDIF
Ignoring BSIM parameter ACM
Ignoring BSIM parameter XL
Ignoring BSIM parameter XW
Ignoring BSIM parameter HDIF
Ignoring BSIM parameter ACM
Ignoring BSIM parameter XL
Ignoring BSIM parameter XW
Warning: Pd = 0 is less than W.
Warning: Ps = 0 is less than W.
Warning: Pd = 0 is less than W.
Warning: Ps = 0 is less than W.
Direct Newton iteration for .op point succeeded.

Date: Tue Apr 10 15:37:55 2018
Total elapsed time: 0.623 seconds.

tnom = 27
temp = 27
method = modified trap
totiter = 9840
traniter = 9831
tranpoints = 3738
accept = 3085
rejected = 653
matrix size = 10
fillins = 0
solver = Normal
Matrix Compiler1: 508 bytes object code size  0.2/0.1/[0.1]
Matrix Compiler2: 914 bytes object code size  2.1/0.3/[0.2]

